Circuit: * C:\Users\HP\Desktop\Linear Regulator\Transistor Series Voltage Regulator.asc

Warning: Multiple definitions of model "2scr375p" Type: BJT
Warning: Multiple definitions of model "bc857b" Type: BJT
Warning: Multiple definitions of model "bc847c" Type: BJT
Warning: Multiple definitions of model "bc847b" Type: BJT
Direct Newton iteration for .op point succeeded.

Date: Fri Nov  3 20:10:53 2023
Total elapsed time: 0.628 seconds.

tnom = 27
temp = 27
method = modified trap
totiter = 2105
traniter = 2088
tranpoints = 1045
accept = 1045
rejected = 0
matrix size = 17
fillins = 12
solver = Normal
Avg thread counts: 1.3/1.6/1.6/1.3
Matrix Compiler1: 2.09 KB object code size  0.3/0.3/[0.3]
Matrix Compiler2: off  [0.2]/0.3/0.4

