Circuit: * C:\Users\HP\Desktop\Wien Bridg Oscillator\sim.asc

Direct Newton iteration for .op point succeeded.
Heightened Def Con from 9.80616e-11 to 4.09806e-09

Date: Wed Sep 13 11:51:11 2023
Total elapsed time: 0.101 seconds.

tnom = 27
temp = 27
method = modified trap
totiter = 3874
traniter = 3848
tranpoints = 1353
accept = 1266
rejected = 88
matrix size = 38
fillins = 46
solver = Normal
Avg thread counts: 1.2/1.5/1.5/1.2
Matrix Compiler1: 3.99 KB object code size  1.1/0.8/[0.6]
Matrix Compiler2: 3.89 KB object code size  0.5/0.6/[0.4]

