Circuit: * F:\ENTC\My aca\2nd Sem My ACA\EN1014 Electronic Engineering 4\Tronic Assignment\200029B.asc

.OP point found by inspection.

Date: Mon Sep  4 09:29:24 2023
Total elapsed time: 0.103 seconds.

tnom = 27
temp = 27
method = modified trap
totiter = 7222
traniter = 7222
tranpoints = 2958
accept = 2364
rejected = 594
matrix size = 14
fillins = 4
solver = Normal
Avg thread counts: 1.1/1.2/1.2/1.1
Matrix Compiler1: 938 bytes object code size  0.3/0.2/[0.1]
Matrix Compiler2: 1.09 KB object code size  0.1/0.2/[0.1]

