Circuit: * C:\Users\HP\Desktop\Current Mirror\Current Mirror.asc

Instance "m2": Length shorter than recommended for a level 1 MOSFET.
Instance "m1": Length shorter than recommended for a level 1 MOSFET.
Instance "m1": Width narrower than recommended for a level 1 MOSFET.
vdd: Missing value, assumed 0V @ DC
.OP point found by inspection.

iref: id(m1)=2.72012e-06 at 2.5
iout: id(m2)=5.44023e-06 at 2.5
ratio: iout/iref=2


Date: Tue Oct 24 20:22:49 2023
Total elapsed time: 0.150 seconds.

tnom = 27
temp = 27
method = trap
totiter = 103
traniter = 0
tranpoints = 0
accept = 0
rejected = 0
matrix size = 3
fillins = 0
solver = Normal
Avg thread counts: 6.2/0.0/8.0/6.2
Matrix Compiler1: off  [0.0]/0.1/0.1
Matrix Compiler2: off  [0.0]/0.1/0.0

