Circuit: * C:\Users\HP\Desktop\Mixer\Simulation\step1\step1.asc

Direct Newton iteration for .op point succeeded.

Date: Sun Nov  5 01:23:35 2023
Total elapsed time: 0.177 seconds.

tnom = 27
temp = 27
method = modified trap
totiter = 92362
traniter = 92349
tranpoints = 39472
accept = 24271
rejected = 15201
matrix size = 11
fillins = 0
solver = Normal
Avg thread counts: 1.0/1.0/1.0/1.0
Matrix Compiler1:      18 opcodes  0.1/[0.1]/0.1
Matrix Compiler2: off  [0.1]/0.1/0.1

