Circuit: * C:\Users\HP\Desktop\Ring Oscillator\sim\CMOS inverter.asc

Model "cmosp": Oxide thickness thinner than recommended for a level 1 MOSFET.
Instance "m1": Length shorter than recommended for a level 1 MOSFET.
Model "cmosn": Oxide thickness thinner than recommended for a level 1 MOSFET.
Instance "m2": Length shorter than recommended for a level 1 MOSFET.
Direct Newton iteration for .op point succeeded.

tmid1: v(vout)=2.5 AT 2.56801e-08
tplh: tmid1-25.005n=6.751e-10
tmid2: v(vout)=2.5 AT 3.06558e-08
tphl: tmid2-30.005n=6.50782e-10


Date: Mon Dec  4 19:34:50 2023
Total elapsed time: 0.076 seconds.

tnom = 27
temp = 27
method = modified trap
totiter = 3642
traniter = 3634
tranpoints = 1506
accept = 1370
rejected = 136
matrix size = 5
fillins = 0
solver = Normal
Avg thread counts: 1.2/1.4/1.4/1.2
Matrix Compiler1:      12 opcodes  0.1/[0.1]/0.1
Matrix Compiler2:      28 opcodes  0.1/[0.1]/0.1

