Circuit: * C:\Users\HP\Desktop\Ring Oscillator\sim\Ring Oscillator.asc

Model "cmosp": Oxide thickness thinner than recommended for a level 1 MOSFET.
Model "cmosn": Oxide thickness thinner than recommended for a level 1 MOSFET.
Direct Newton iteration failed to find .op point.  (Use ".option noopiter" to skip.)
Starting Gmin stepping
Gmin = 10
Gmin = 1.07374
Gmin = 0.115292
Gmin = 0.0123794
Gmin = 0.00132923
Gmin = 0.000142725
Gmin = 1.5325e-05
Gmin = 1.6455e-06
Gmin = 1.76685e-07
Gmin = 1.89714e-08
Gmin = 2.03704e-09
Gmin = 2.18725e-10
Gmin = 2.34854e-11
Gmin = 2.52173e-12
Gmin = 2.70769e-13
Gmin = 0
Gmin stepping succeeded in finding the operating point.


time1: time=2.83337e-07 at 2.83337e-07
time2: time=3.48109e-07 at 3.48109e-07
time3: time=3.16403e-07 at 3.16403e-07
period: time2-time1=6.4772e-08
ontime: time3-time1=3.30659e-08
dutycycle: (ontime*100)/period=51.0497
rtime1: time=2.81412e-07 at 2.81412e-07
rtime2: time=2.87183e-07 at 2.87183e-07
trise: rtime2-rtime1=5.77018e-09
ftime1: time=3.23042e-07 at 3.23042e-07
ftime2: time=3.13944e-07 at 3.13944e-07
tfall: ftime1-ftime2=9.0982e-09


Date: Mon Dec  4 20:25:12 2023
Total elapsed time: 0.708 seconds.

tnom = 27
temp = 27
method = modified trap
totiter = 32251
traniter = 31871
tranpoints = 10414
accept = 7571
rejected = 2843
matrix size = 17
fillins = 21
solver = Normal
Avg thread counts: 1.0/3.0/1.1/1.0
Matrix Compiler1: 2.62 KB object code size  0.8/0.6/[0.5]
Matrix Compiler2: 1.83 KB object code size  1.2/0.7/[0.3]

