Circuit: * D:\Semester 4\EN2111-Electronic Circuit Design-4\Labs\Lab 2\Lab_2.asc

Warning: Multiple definitions of model "2scr375p" Type: BJT
Warning: Multiple definitions of model "bc857b" Type: BJT
Warning: Multiple definitions of model "bc847c" Type: BJT
Warning: Multiple definitions of model "bc847b" Type: BJT
Direct Newton iteration for .op point succeeded.

Date: Wed Sep 13 12:43:45 2023
Total elapsed time: 0.074 seconds.

tnom = 27
temp = 27
method = modified trap
totiter = 17645
traniter = 17632
tranpoints = 4951
accept = 3828
rejected = 1123
matrix size = 12
fillins = 6
solver = Normal
Avg thread counts: 1.0/1.1/1.1/1.0
Matrix Compiler1: 1.18 KB object code size  0.3/0.2/[0.2]
Matrix Compiler2: off  [0.1]/0.2/0.2

