Circuit: * C:\Users\ENVY BANG & OLUFSEN\Desktop\Ltspice examples\Logic families\Draft1.asc

Direct Newton iteration for .op point succeeded.

Date: Tue Jan 24 07:49:06 2023
Total elapsed time: 0.106 seconds.

tnom = 27
temp = 27
method = modified trap
totiter = 2089
traniter = 2082
tranpoints = 1042
accept = 1042
rejected = 0
matrix size = 3
fillins = 0
solver = Normal
Matrix Compiler1: 50 bytes object code size  0.0/0.1/[0.0]
Matrix Compiler2:      15 opcodes  0.0/[0.0]/0.0

