Circuit: * C:\Users\HP\Desktop\Ltspice\Small Signal Transistor amplifier\CE\Example_1.asc

Warning: Multiple definitions of model "2scr375p" Type: BJT
Warning: Multiple definitions of model "bc857b" Type: BJT
Warning: Multiple definitions of model "bc847c" Type: BJT
Warning: Multiple definitions of model "bc847b" Type: BJT
Direct Newton iteration for .op point succeeded.

Date: Wed Sep 13 12:34:23 2023
Total elapsed time: 0.120 seconds.

tnom = 27
temp = 27
method = modified trap
totiter = 91912
traniter = 91904
tranpoints = 40004
accept = 24075
rejected = 15929
matrix size = 12
fillins = 0
solver = Normal
Avg thread counts: 1.0/1.0/1.0/1.0
Matrix Compiler1:      36 opcodes  0.2/[0.1]/0.2
Matrix Compiler2: off  [0.1]/0.2/0.1

